[Format]      =  4.0
[Frequency]   =  0
[Precision]   =  1e-008
[MinAngle]    =  20
[DoSmartMesh] =  0
[Depth]       =  83.819999999999993
[LengthUnits] =  millimeters
[ProblemType] =  planar
[Coordinates] =  cartesian
[ACSolver]    =  0
[PrevType]    =  0
[PrevSoln]    =  ""
[Comment]     =  "Add comments here."
[PointProps]   = 0
[BdryProps]   = 6
  <BeginBdry>
    <BdryName> = "a0"
    <BdryType> = 0
    <A_0> = 0
    <A_1> = 0
    <A_2> = 0
    <Phi> = 0
    <c0> = 0
    <c0i> = 0
    <c1> = 0
    <c1i> = 0
    <Mu_ssd> = 0
    <Sigma_ssd> = 0
    <innerangle> = 0
    <outerangle> = 0
  <EndBdry>
  <BeginBdry>
    <BdryName> = "PB1"
    <BdryType> = 4
    <A_0> = 0
    <A_1> = 0
    <A_2> = 0
    <Phi> = 0
    <c0> = 0
    <c0i> = 0
    <c1> = 0
    <c1i> = 0
    <Mu_ssd> = 0
    <Sigma_ssd> = 0
    <innerangle> = 0
    <outerangle> = 0
  <EndBdry>
  <BeginBdry>
    <BdryName> = "PB2"
    <BdryType> = 4
    <A_0> = 0
    <A_1> = 0
    <A_2> = 0
    <Phi> = 0
    <c0> = 0
    <c0i> = 0
    <c1> = 0
    <c1i> = 0
    <Mu_ssd> = 0
    <Sigma_ssd> = 0
    <innerangle> = 0
    <outerangle> = 0
  <EndBdry>
  <BeginBdry>
    <BdryName> = "PB3"
    <BdryType> = 4
    <A_0> = 0
    <A_1> = 0
    <A_2> = 0
    <Phi> = 0
    <c0> = 0
    <c0i> = 0
    <c1> = 0
    <c1i> = 0
    <Mu_ssd> = 0
    <Sigma_ssd> = 0
    <innerangle> = 0
    <outerangle> = 0
  <EndBdry>
  <BeginBdry>
    <BdryName> = "PB4"
    <BdryType> = 4
    <A_0> = 0
    <A_1> = 0
    <A_2> = 0
    <Phi> = 0
    <c0> = 0
    <c0i> = 0
    <c1> = 0
    <c1i> = 0
    <Mu_ssd> = 0
    <Sigma_ssd> = 0
    <innerangle> = 0
    <outerangle> = 0
  <EndBdry>
  <BeginBdry>
    <BdryName> = "APairgap"
    <BdryType> = 6
    <A_0> = 0
    <A_1> = 0
    <A_2> = 0
    <Phi> = 0
    <c0> = 0
    <c0i> = 0
    <c1> = 0
    <c1i> = 0
    <Mu_ssd> = 0
    <Sigma_ssd> = 0
    <innerangle> = 0
    <outerangle> = 0
  <EndBdry>
[BlockProps]  = 13
  <BeginBlock>
    <BlockName> = "air"
    <Mu_x> = 1
    <Mu_y> = 1
    <H_c> = 0
    <H_cAngle> = 0
    <J_re> = 0
    <J_im> = 0
    <Sigma> = 0
    <d_lam> = 0
    <Phi_h> = 0
    <Phi_hx> = 0
    <Phi_hy> = 0
    <LamType> = 0
    <LamFill> = 1
    <NStrands> = 0
    <WireD> = 1
    <BHPoints> = 0
  <EndBlock>
  <BeginBlock>
    <BlockName> = "airgap"
    <Mu_x> = 1
    <Mu_y> = 1
    <H_c> = 0
    <H_cAngle> = 0
    <J_re> = 0
    <J_im> = 0
    <Sigma> = 0
    <d_lam> = 0
    <Phi_h> = 0
    <Phi_hx> = 0
    <Phi_hy> = 0
    <LamType> = 0
    <LamFill> = 1
    <NStrands> = 0
    <WireD> = 1
    <BHPoints> = 0
  <EndBlock>
  <BeginBlock>
    <BlockName> = "airrot"
    <Mu_x> = 1
    <Mu_y> = 1
    <H_c> = 0
    <H_cAngle> = 0
    <J_re> = 0
    <J_im> = 0
    <Sigma> = 0
    <d_lam> = 0
    <Phi_h> = 0
    <Phi_hx> = 0
    <Phi_hy> = 0
    <LamType> = 0
    <LamFill> = 1
    <NStrands> = 0
    <WireD> = 1
    <BHPoints> = 0
  <EndBlock>
  <BeginBlock>
    <BlockName> = "MagnetWire"
    <Mu_x> = 1
    <Mu_y> = 1
    <H_c> = 0
    <H_cAngle> = 0
    <J_re> = 0
    <J_im> = 0
    <Sigma> = 58
    <d_lam> = 0
    <Phi_h> = 0
    <Phi_hx> = 0
    <Phi_hy> = 0
    <LamType> = 3
    <LamFill> = 1
    <NStrands> = 1
    <WireD> = 0.91200000000000003
    <BHPoints> = 0
  <EndBlock>
  <BeginBlock>
    <BlockName> = "U-"
    <Mu_x> = 1
    <Mu_y> = 1
    <H_c> = 0
    <H_cAngle> = 0
    <J_re> = -6.302741692636296
    <J_im> = -0
    <Sigma> = 58
    <d_lam> = 0
    <Phi_h> = 0
    <Phi_hx> = 0
    <Phi_hy> = 0
    <LamType> = 3
    <LamFill> = 1
    <NStrands> = 0
    <WireD> = 0.91200000000000003
    <BHPoints> = 0
  <EndBlock>
  <BeginBlock>
    <BlockName> = "V+"
    <Mu_x> = 1
    <Mu_y> = 1
    <H_c> = 0
    <H_cAngle> = 0
    <J_re> = -3.1513708463181467
    <J_im> = -0
    <Sigma> = 58
    <d_lam> = 0
    <Phi_h> = 0
    <Phi_hx> = 0
    <Phi_hy> = 0
    <LamType> = 3
    <LamFill> = 1
    <NStrands> = 0
    <WireD> = 0.91200000000000003
    <BHPoints> = 0
  <EndBlock>
  <BeginBlock>
    <BlockName> = "V-"
    <Mu_x> = 1
    <Mu_y> = 1
    <H_c> = 0
    <H_cAngle> = 0
    <J_re> = 3.1513708463181467
    <J_im> = 0
    <Sigma> = 58
    <d_lam> = 0
    <Phi_h> = 0
    <Phi_hx> = 0
    <Phi_hy> = 0
    <LamType> = 3
    <LamFill> = 1
    <NStrands> = 0
    <WireD> = 0.91200000000000003
    <BHPoints> = 0
  <EndBlock>
  <BeginBlock>
    <BlockName> = "W+"
    <Mu_x> = 1
    <Mu_y> = 1
    <H_c> = 0
    <H_cAngle> = 0
    <J_re> = -3.1513708463181507
    <J_im> = -0
    <Sigma> = 58
    <d_lam> = 0
    <Phi_h> = 0
    <Phi_hx> = 0
    <Phi_hy> = 0
    <LamType> = 3
    <LamFill> = 1
    <NStrands> = 0
    <WireD> = 0.91200000000000003
    <BHPoints> = 0
  <EndBlock>
  <BeginBlock>
    <BlockName> = "W-"
    <Mu_x> = 1
    <Mu_y> = 1
    <H_c> = 0
    <H_cAngle> = 0
    <J_re> = 3.1513708463181507
    <J_im> = 0
    <Sigma> = 58
    <d_lam> = 0
    <Phi_h> = 0
    <Phi_hx> = 0
    <Phi_hy> = 0
    <LamType> = 3
    <LamFill> = 1
    <NStrands> = 0
    <WireD> = 0.91200000000000003
    <BHPoints> = 0
  <EndBlock>
  <BeginBlock>
    <BlockName> = "steel_stator"
    <Mu_x> = 1
    <Mu_y> = 1
    <H_c> = 0
    <H_cAngle> = 0
    <J_re> = 0
    <J_im> = 0
    <Sigma> = 1.8999999999999999
    <d_lam> = 0.34000000000000002
    <Phi_h> = 0
    <Phi_hx> = 0
    <Phi_hy> = 0
    <LamType> = 0
    <LamFill> = 0.93999999999999995
    <NStrands> = 0
    <WireD> = 1
    <BHPoints> = 25
      0	0
      0.047002000000000002	22.280000000000001
      0.094002000000000002	25.460000000000001
      0.14100199999999999	31.829999999999998
      0.33840399999999998	47.740000000000002
      0.50760499999999997	63.659999999999997
      0.61100600000000005	79.569999999999993
      0.93061199999999999	159.15000000000001
      1.1280239999999999	318.30000000000001
      1.203236	477.45999999999998
      1.250248	636.61000000000001
      1.2784599999999999	795.76999999999998
      1.35372	1591.5
      1.4290400000000001	3183
      1.48556	4774.6000000000004
      1.53268	6366.1000000000004
      1.5704	7957.6999999999998
      1.6932	15915
      1.7884	31830
      1.8884000000000001	111407
      1.9883999999999999	190984
      2.1884000000000001	350135
      2.3883969999999999	509252
      2.452391	560177.19999999995
      3.6682869999999999	1527756
  <EndBlock>
  <BeginBlock>
    <BlockName> = "steel_rotor"
    <Mu_x> = 1
    <Mu_y> = 1
    <H_c> = 0
    <H_cAngle> = 0
    <J_re> = 0
    <J_im> = 0
    <Sigma> = 1.8999999999999999
    <d_lam> = 0.34000000000000002
    <Phi_h> = 0
    <Phi_hx> = 0
    <Phi_hy> = 0
    <LamType> = 0
    <LamFill> = 0.93999999999999995
    <NStrands> = 0
    <WireD> = 1
    <BHPoints> = 25
      0	0
      0.047002000000000002	22.280000000000001
      0.094002000000000002	25.460000000000001
      0.14100199999999999	31.829999999999998
      0.33840399999999998	47.740000000000002
      0.50760499999999997	63.659999999999997
      0.61100600000000005	79.569999999999993
      0.93061199999999999	159.15000000000001
      1.1280239999999999	318.30000000000001
      1.203236	477.45999999999998
      1.250248	636.61000000000001
      1.2784599999999999	795.76999999999998
      1.35372	1591.5
      1.4290400000000001	3183
      1.48556	4774.6000000000004
      1.53268	6366.1000000000004
      1.5704	7957.6999999999998
      1.6932	15915
      1.7884	31830
      1.8884000000000001	111407
      1.9883999999999999	190984
      2.1884000000000001	350135
      2.3883969999999999	509252
      2.452391	560177.19999999995
      3.6682869999999999	1527756
  <EndBlock>
  <BeginBlock>
    <BlockName> = "magnet_right"
    <Mu_x> = 1.03
    <Mu_y> = 1.03
    <H_c> = 782000
    <H_cAngle> = 0
    <J_re> = 0
    <J_im> = 0
    <Sigma> = 0.66700000000000004
    <d_lam> = 0
    <Phi_h> = 0
    <Phi_hx> = 0
    <Phi_hy> = 0
    <LamType> = 0
    <LamFill> = 1
    <NStrands> = 0
    <WireD> = 1
    <BHPoints> = 0
  <EndBlock>
  <BeginBlock>
    <BlockName> = "magnet_left"
    <Mu_x> = 1.03
    <Mu_y> = 1.03
    <H_c> = 782000
    <H_cAngle> = 0
    <J_re> = 0
    <J_im> = 0
    <Sigma> = 0.66700000000000004
    <d_lam> = 0
    <Phi_h> = 0
    <Phi_hx> = 0
    <Phi_hy> = 0
    <LamType> = 0
    <LamFill> = 1
    <NStrands> = 0
    <WireD> = 1
    <BHPoints> = 0
  <EndBlock>
[CircuitProps]  = 4
  <BeginCircuit>
    <CircuitName> = "U"
    <TotalAmps_re> = 0
    <TotalAmps_im> = 0
    <CircuitType> = 1
  <EndCircuit>
  <BeginCircuit>
    <CircuitName> = "V"
    <TotalAmps_re> = 0
    <TotalAmps_im> = 0
    <CircuitType> = 1
  <EndCircuit>
  <BeginCircuit>
    <CircuitName> = "W"
    <TotalAmps_re> = 0
    <TotalAmps_im> = 0
    <CircuitType> = 1
  <EndCircuit>
  <BeginCircuit>
    <CircuitName> = "F"
    <TotalAmps_re> = 100
    <TotalAmps_im> = 0
    <CircuitType> = 1
  <EndCircuit>
[NumPoints] = 692
55.457211511360121	2.1789197746283113	0	0
80.173141722774417	3.1500113174288691	0	0
80.416287454926334	3.1595645392635747	0	0
80.902578919230123	3.1786709829329869	0	0
80.659433187078207	3.1691177610982875	0	0
134.39630537437725	5.2804452195947249	0	0
73.046503218455285	37.855092336561739	0	0
99.369082577442285	50.746979758020103	0	0
71.531928813652215	40.644591380059396	0	0
96.680279580480288	55.699138836104083	0	0
70.674732059896854	39.471315512176503	0	0
71.595648467197947	37.775198484738901	0	0
72.497096928551827	38.264645064761311	0	0
72.650904491294213	37.981366773650642	0	0
71.422372958508404	40.244040383309589	0	0
71.576180521250734	39.960762092198905	0	0
67.480499198433179	47.06571869400981	0	0
91.895156266352458	63.28310028456324	0	0
65.614779499273538	49.633661556600103	0	0
88.582969884037965	67.84193373841174	0	0
64.9180594140349	48.35853659816263	0	0
66.052484950959453	46.797133799018845	0	0
65.558443306053448	49.22223742054701	0	0
65.74791026045213	48.961458529985904	0	0
66.882335797376626	47.400055730842354	0	0
67.071802751775351	47.139276840281077	0	0
60.759885127996853	55.471037555521143	0	0
82.848878353394895	74.736429419847283	0	0
58.574943115808686	57.773486022856481	0	0
78.969981013040396	78.823934345118062	0	0
58.050620772912524	56.418329715434666	0	0
59.379145104001523	55.018357179380828	0	0
58.572790512397702	57.358228328536256	0	0
58.794675026332747	57.124410837643929	0	0
60.123199357421697	55.724438301590069	0	0
60.345083871356685	55.490620810697777	0	0
81.972685912903501	7.0198584371681187	0	0
111.22508995368364	8.8571943434937062	0	0
81.640896688385311	10.176622041217875	0	0
110.63606913145459	14.461353117306253	0	0
80.399956916023115	9.4206914768305978	0	0
80.601696850129642	7.5012642187700287	0	0
81.386396045877675	9.8484863842758692	0	0
81.420089796284074	9.5279117630799064	0	0
81.62182973039063	7.6084845050191161	0	0
81.655523480797029	7.2879098838231489	0	0
80.355122829630176	17.659385133363401	0	0
109.11744803901017	23.29920728903307	0	0
79.614131774946941	20.745835003074362	0	0
107.80197686622678	28.778539062588489	0	0
78.482477152516267	19.834396386196484	0	0
78.933026704758106	17.957722439829009	0	0
79.404638718548696	20.38728759238165	0	0
79.479887598876573	20.073853448452262	0	0
79.930437151118511	18.197179502084836	0	0
80.00568603144643	17.883745358155295	0	0
77.362661316092854	27.996754853820292	0	0
105.14277633531739	37.34256433809626	0	0
76.225146993631824	30.96008097619621	0	0
103.12336288846323	42.603316225591463	0	0
75.222140445475873	29.9087292742621	0	0
75.913790588098735	28.10691905112142	0	0
76.064246007620355	30.577256657357779	0	0
76.179762488664394	30.276325935798077	0	0
76.871412631286816	28.474515712658452	0	0
76.986929112330941	28.173584991098391	0	0
63.024373423194618	29.05463411091797	0	0
60.433610149643975	26.701350692924727	0	0
58.212955884818939	24.68424966252504	0	0
70.920687836249328	10.694127132610728	0	0
72.475146345265628	12.106097434602519	0	0
75.732106282768171	15.064511999663402	0	0
59.691622380446297	27.518214835796776	0	0
73.887116228597705	10.551639833729379	0	0
76.90412607237478	10.725287066774509	0	0
78.014452750715705	11.733837372644508	0	0
76.98933732928306	13.680407580590499	0	0
59.552356521711907	28.612937585236097	0	0
56.576341286671322	28.234341162205869	0	0
54.191180370008681	46.98323412027267	0	0
56.274391055784172	47.248252286877602	0	0
60.639213414675133	47.803527487644494	0	0
56.009373307838963	49.331462064509992	0	0
58.100806854590395	51.512839491393002	0	0
59.588814018039102	51.702137493578221	0	0
60.403238406857952	49.658437389204039	0	0
-2.1789197746282949	55.457211511360114	0	0
-3.1500113174288655	80.173141722774417	0	0
-3.1595645392635596	80.416287454926291	0	0
-3.1786709829329771	80.902578919230109	0	0
-3.1691177610982733	80.659433187078207	0	0
-5.2804452195947249	134.39630537437725	0	0
24.884085274108983	78.419270261360381	0	0
34.381018619162973	106.14808564242792	0	0
21.840645752090602	79.320778118883183	0	0
28.978042521108748	107.74852007562913	0	0
22.064147437081612	77.88501715910914	0	0
23.914669525377242	77.336867543830579	0	0
24.205998849528349	78.320378859506505	0	0
24.51506522074855	78.228829229512101	0	0
22.046410390012515	78.960078104779441	0	0
22.355476761232723	78.868528474785066	0	0
14.435429731112679	80.996407431018284	0	0
20.231778808412287	109.72759749985829	0	0
11.300356868206402	81.492954191786367	0	0
14.66612730740759	110.60911009788633	0	0
11.709350876316625	80.098649189953917	0	0
13.615589373665408	79.796730672426222	0	0
11.551441960501194	81.162197690987242	0	0
11.869813850673324	81.11177253734725	0	0
13.776052348021866	80.809854019819682	0	0
14.094424238194188	80.759428866179604	0	0
3.7397799831595799	82.187673613084883	0	0
5.7363676529410856	111.42963974182869	0	0
0.56671574525657142	82.270763224352621	0	0
0.10327058925757093	111.57714757972997	0	0
1.1542040756127667	80.941771125617464	0	0
3.0835427128157153	80.891249615383231	0	0
0.85882515638116885	81.975609572289812	0	0
1.1810551341949171	81.967171683363574	0	0
3.110393771397852	81.916650173129284	0	0
3.4326237492115079	81.908212284203017	0	0
52.999652577197871	62.92723158498022	0	0
72.385033161761939	84.910997526904978	0	0
50.532873215589959	64.924790125425247	0	0
68.005793872294745	88.45723558105567	0	0
50.189919915692975	63.512789569159438	0	0
51.689811621304756	62.29820121443332	0	0
50.584941033629278	64.512804047118919	0	0
50.835446601549229	64.309948637990971	0	0
52.335338307161166	63.095360283264746	0	0
52.585843875081132	62.892504874136733	0	0
44.332581276523328	69.306723235295621	0	0
60.682659983808534	93.632714924501144	0	0
41.626171844293246	70.965213068395485	0	0
55.878008743626026	96.577008991222556	0	0
41.470455613441068	69.520527984284001	0	0
43.116051130644387	68.512105754382219	0	0
41.731569188980252	70.56354780212709	0	0
42.00640959116464	70.395125387055742	0	0
43.652005108368023	69.386703157154088	0	0
43.926845510552567	69.218280742082626	0	0
34.90696721889374	74.500357635601176	0	0
47.941989669120609	100.75235060984616	0	0
32.007235131785478	75.791401540491407	0	0
42.794135393042936	103.04432300134413	0	0
32.041420317859497	74.338750890866166	0	0
33.804563051110819	73.553749169729429	0	0
32.164158625330948	75.406929690329306	0	0
32.458631266298241	75.275822023532157	0	0
34.221773999548454	74.490820302395804	0	0
34.516246640516059	74.359712635598441	0	0
24.020233022850071	65.109690632298239	0	0
23.852309406590212	61.613721690204599	0	0
23.708375534195607	58.617176183942	0	0
42.586609481086107	57.71038910976629	0	0
42.687363858512249	59.807971037937236	0	0
42.898467315857609	64.202904496313806	0	0
22.750034648700115	61.666667281780413	0	0
44.784944848491918	59.707217006628177	0	0
46.795505831912756	61.963352262090019	0	0
46.867472595051517	63.461624546125648	0	0
44.766173534963272	64.113191474226042	0	0
21.877472935953548	62.342277328329288	0	0
20.0408204803995	59.970208676659965	0	0
5.0967876716164842	71.541114568656425	0	0
6.3824439314246284	73.201563113952545	0	0
9.0762005601841125	76.680597462485991	0	0
4.7219963243198171	74.487219027643661	0	0
4.6583963967525372	77.508552641828885	0	0
5.5767224514710385	78.694586498567887	0	0
7.5977216620831971	77.825357304150742	0	0
79.249404892787055	32.269169516208727	0	1
80.486074133315213	29.047536001065559	0	1
43.228554340173233	73.844834394732075	0	1
46.170876235402623	72.041777218374094	0	1
37.673441377078262	40.754899273680543	0	0
91.298700274180675	98.766377519099706	0	0
54.628752665915265	59.097051688534911	0	0
54.793927513994944	59.2757368324976	0	0
54.959102362074624	59.454421976460267	0	0
54.463577817835571	58.918366544572223	0	0
-37.855092336561732	73.046503218455285	0	0
-50.746979758020096	99.369082577442285	0	0
-40.644591380059389	71.531928813652215	0	0
-55.699138836104076	96.680279580480288	0	0
-39.471315512176496	70.674732059896854	0	0
-37.775198484738894	71.595648467197947	0	0
-38.264645064761304	72.497096928551827	0	0
-37.981366773650635	72.650904491294213	0	0
-40.244040383309581	71.422372958508404	0	0
-39.960762092198898	71.576180521250734	0	0
-47.065718694009803	67.480499198433179	0	0
-63.283100284563233	91.895156266352458	0	0
-49.633661556600096	65.614779499273538	0	0
-67.84193373841174	88.582969884037965	0	0
-48.358536598162623	64.9180594140349	0	0
-46.797133799018837	66.052484950959453	0	0
-49.222237420547003	65.558443306053448	0	0
-48.961458529985897	65.74791026045213	0	0
-47.400055730842347	66.882335797376626	0	0
-47.13927684028107	67.071802751775351	0	0
-55.471037555521136	60.759885127996853	0	0
-74.736429419847283	82.848878353394895	0	0
-57.773486022856474	58.574943115808686	0	0
-78.823934345118062	78.969981013040396	0	0
-56.418329715434659	58.050620772912524	0	0
-55.018357179380821	59.379145104001523	0	0
-57.358228328536249	58.572790512397702	0	0
-57.124410837643921	58.794675026332747	0	0
-55.724438301590062	60.123199357421697	0	0
-55.49062081069777	60.345083871356685	0	0
-7.0198584371681134	81.972685912903501	0	0
-8.8571943434936991	111.22508995368364	0	0
-10.17662204121787	81.640896688385311	0	0
-14.461353117306246	110.63606913145459	0	0
-9.4206914768305925	80.399956916023115	0	0
-7.5012642187700234	80.601696850129642	0	0
-9.8484863842758639	81.386396045877675	0	0
-9.5279117630799011	81.420089796284074	0	0
-7.6084845050191108	81.62182973039063	0	0
-7.2879098838231435	81.655523480797029	0	0
-17.659385133363397	80.355122829630176	0	0
-23.299207289033063	109.11744803901017	0	0
-20.745835003074358	79.614131774946941	0	0
-28.778539062588482	107.80197686622678	0	0
-19.834396386196481	78.482477152516267	0	0
-17.957722439829006	78.933026704758106	0	0
-20.387287592381647	79.404638718548696	0	0
-20.073853448452258	79.479887598876573	0	0
-18.197179502084833	79.930437151118511	0	0
-17.883745358155291	80.00568603144643	0	0
-27.996754853820288	77.362661316092854	0	0
-37.342564338096253	105.14277633531739	0	0
-30.960080976196206	76.225146993631824	0	0
-42.603316225591456	103.12336288846323	0	0
-29.908729274262097	75.222140445475873	0	0
-28.106919051121416	75.913790588098735	0	0
-30.577256657357776	76.064246007620355	0	0
-30.276325935798074	76.179762488664394	0	0
-28.474515712658448	76.871412631286816	0	0
-28.173584991098387	76.986929112330941	0	0
-29.054634110917966	63.024373423194618	0	0
-26.701350692924724	60.433610149643975	0	0
-24.684249662525037	58.212955884818939	0	0
-10.694127132610724	70.920687836249328	0	0
-12.106097434602516	72.475146345265628	0	0
-15.064511999663397	75.732106282768171	0	0
-27.518214835796773	59.691622380446297	0	0
-10.551639833729373	73.887116228597705	0	0
-10.725287066774504	76.90412607237478	0	0
-11.733837372644503	78.014452750715705	0	0
-13.680407580590494	76.98933732928306	0	0
-28.612937585236093	59.552356521711907	0	0
-28.234341162205865	56.576341286671322	0	0
-46.98323412027267	54.191180370008681	0	0
-47.248252286877602	56.274391055784172	0	0
-47.803527487644487	60.639213414675133	0	0
-49.331462064509992	56.009373307838963	0	0
-51.512839491392995	58.100806854590395	0	0
-51.702137493578213	59.588814018039102	0	0
-49.658437389204032	60.403238406857952	0	0
-55.457211511360114	-2.1789197746282913	0	0
-80.173141722774417	-3.1500113174288606	0	0
-80.416287454926291	-3.1595645392635547	0	0
-80.902578919230109	-3.1786709829329722	0	0
-80.659433187078207	-3.1691177610982684	0	0
-134.39630537437725	-5.2804452195947169	0	0
-78.419270261360381	24.884085274108987	0	0
-106.14808564242792	34.38101861916298	0	0
-79.320778118883183	21.840645752090605	0	0
-107.74852007562913	28.978042521108755	0	0
-77.88501715910914	22.064147437081616	0	0
-77.336867543830579	23.914669525377246	0	0
-78.320378859506505	24.205998849528353	0	0
-78.228829229512101	24.515065220748554	0	0
-78.960078104779441	22.046410390012518	0	0
-78.868528474785066	22.355476761232726	0	0
-80.996407431018284	14.435429731112684	0	0
-109.72759749985829	20.231778808412294	0	0
-81.492954191786367	11.300356868206407	0	0
-110.60911009788633	14.666127307407598	0	0
-80.098649189953917	11.709350876316631	0	0
-79.796730672426222	13.615589373665413	0	0
-81.162197690987242	11.551441960501199	0	0
-81.11177253734725	11.86981385067333	0	0
-80.809854019819682	13.776052348021871	0	0
-80.759428866179604	14.094424238194193	0	0
-82.187673613084883	3.7397799831595848	0	0
-111.42963974182869	5.7363676529410927	0	0
-82.270763224352621	0.56671574525657642	0	0
-111.57714757972997	0.10327058925757776	0	0
-80.941771125617464	1.1542040756127716	0	0
-80.891249615383231	3.0835427128157202	0	0
-81.975609572289812	0.85882515638117385	0	0
-81.967171683363574	1.1810551341949223	0	0
-81.916650173129284	3.1103937713978569	0	0
-81.908212284203017	3.4326237492115128	0	0
-62.92723158498022	52.999652577197878	0	0
-84.910997526904978	72.385033161761939	0	0
-64.924790125425247	50.532873215589966	0	0
-88.45723558105567	68.005793872294745	0	0
-63.512789569159438	50.189919915692982	0	0
-62.29820121443332	51.689811621304763	0	0
-64.512804047118919	50.584941033629285	0	0
-64.309948637990971	50.835446601549236	0	0
-63.095360283264746	52.335338307161173	0	0
-62.892504874136733	52.585843875081139	0	0
-69.306723235295621	44.332581276523335	0	0
-93.632714924501144	60.682659983808541	0	0
-70.965213068395485	41.626171844293253	0	0
-96.577008991222556	55.878008743626033	0	0
-69.520527984284001	41.470455613441075	0	0
-68.512105754382219	43.116051130644394	0	0
-70.56354780212709	41.731569188980259	0	0
-70.395125387055742	42.006409591164648	0	0
-69.386703157154088	43.65200510836803	0	0
-69.218280742082626	43.926845510552575	0	0
-74.500357635601176	34.906967218893747	0	0
-100.75235060984616	47.941989669120616	0	0
-75.791401540491407	32.007235131785485	0	0
-103.04432300134413	42.794135393042943	0	0
-74.338750890866166	32.041420317859505	0	0
-73.553749169729429	33.804563051110826	0	0
-75.406929690329306	32.164158625330955	0	0
-75.275822023532157	32.458631266298248	0	0
-74.490820302395804	34.221773999548461	0	0
-74.359712635598441	34.516246640516066	0	0
-65.109690632298239	24.020233022850075	0	0
-61.613721690204599	23.852309406590216	0	0
-58.617176183942	23.708375534195611	0	0
-57.71038910976629	42.586609481086107	0	0
-59.807971037937236	42.687363858512256	0	0
-64.202904496313806	42.898467315857616	0	0
-61.666667281780413	22.750034648700119	0	0
-59.707217006628177	44.784944848491925	0	0
-61.963352262090019	46.795505831912763	0	0
-63.461624546125648	46.867472595051524	0	0
-64.113191474226042	44.766173534963279	0	0
-62.342277328329288	21.877472935953552	0	0
-59.970208676659965	20.040820480399503	0	0
-71.541114568656425	5.0967876716164886	0	0
-73.201563113952545	6.3824439314246328	0	0
-76.680597462485991	9.0762005601841178	0	0
-74.487219027643661	4.7219963243198215	0	0
-77.508552641828885	4.6583963967525417	0	0
-78.694586498567887	5.576722451471043	0	0
-77.825357304150742	7.5977216620832015	0	0
-40.754899273680543	37.673441377078262	0	0
-98.766377519099706	91.298700274180675	0	0
-59.097051688534911	54.628752665915272	0	0
-59.2757368324976	54.793927513994952	0	0
-59.454421976460267	54.959102362074631	0	0
-58.918366544572223	54.463577817835578	0	0
-73.046503218455285	-37.855092336561732	0	0
-99.369082577442285	-50.746979758020089	0	0
-71.531928813652215	-40.644591380059389	0	0
-96.680279580480288	-55.699138836104069	0	0
-70.674732059896854	-39.471315512176496	0	0
-71.595648467197947	-37.775198484738894	0	0
-72.497096928551827	-38.264645064761304	0	0
-72.650904491294213	-37.981366773650635	0	0
-71.422372958508404	-40.244040383309581	0	0
-71.576180521250734	-39.960762092198898	0	0
-67.480499198433179	-47.065718694009803	0	0
-91.895156266352473	-63.283100284563226	0	0
-65.614779499273538	-49.633661556600096	0	0
-88.582969884037979	-67.841933738411726	0	0
-64.9180594140349	-48.358536598162623	0	0
-66.052484950959453	-46.797133799018837	0	0
-65.558443306053448	-49.222237420547003	0	0
-65.74791026045213	-48.961458529985897	0	0
-66.882335797376626	-47.400055730842347	0	0
-67.071802751775351	-47.13927684028107	0	0
-60.75988512799686	-55.471037555521136	0	0
-82.848878353394909	-74.736429419847269	0	0
-58.574943115808694	-57.773486022856474	0	0
-78.96998101304041	-78.823934345118047	0	0
-58.050620772912531	-56.418329715434659	0	0
-59.37914510400153	-55.018357179380821	0	0
-58.57279051239771	-57.358228328536249	0	0
-58.794675026332754	-57.124410837643921	0	0
-60.123199357421704	-55.724438301590062	0	0
-60.345083871356692	-55.49062081069777	0	0
-81.972685912903501	-7.019858437168109	0	0
-111.22508995368364	-8.8571943434936919	0	0
-81.640896688385311	-10.176622041217865	0	0
-110.63606913145459	-14.461353117306238	0	0
-80.399956916023115	-9.4206914768305872	0	0
-80.601696850129642	-7.5012642187700189	0	0
-81.386396045877675	-9.8484863842758585	0	0
-81.420089796284074	-9.5279117630798957	0	0
-81.62182973039063	-7.6084845050191063	0	0
-81.655523480797029	-7.2879098838231391	0	0
-80.355122829630176	-17.65938513336339	0	0
-109.11744803901017	-23.299207289033056	0	0
-79.614131774946941	-20.745835003074351	0	0
-107.80197686622678	-28.778539062588475	0	0
-78.482477152516267	-19.834396386196474	0	0
-78.933026704758106	-17.957722439828999	0	0
-79.404638718548696	-20.387287592381639	0	0
-79.479887598876573	-20.073853448452251	0	0
-79.930437151118511	-18.197179502084825	0	0
-80.00568603144643	-17.883745358155284	0	0
-77.362661316092854	-27.996754853820281	0	0
-105.14277633531739	-37.342564338096246	0	0
-76.225146993631824	-30.960080976196199	0	0
-103.12336288846323	-42.603316225591449	0	0
-75.222140445475873	-29.90872927426209	0	0
-75.913790588098735	-28.106919051121409	0	0
-76.064246007620355	-30.577256657357768	0	0
-76.179762488664394	-30.276325935798067	0	0
-76.871412631286816	-28.474515712658441	0	0
-76.986929112330941	-28.17358499109838	0	0
-63.024373423194625	-29.054634110917963	0	0
-60.433610149643975	-26.70135069292472	0	0
-58.212955884818939	-24.684249662525033	0	0
-70.920687836249328	-10.694127132610719	0	0
-72.475146345265628	-12.106097434602511	0	0
-75.732106282768171	-15.064511999663393	0	0
-59.691622380446297	-27.518214835796769	0	0
-73.887116228597705	-10.55163983372937	0	0
-76.90412607237478	-10.7252870667745	0	0
-78.014452750715705	-11.7338373726445	0	0
-76.98933732928306	-13.68040758059049	0	0
-59.552356521711907	-28.612937585236089	0	0
-56.576341286671322	-28.234341162205862	0	0
-54.191180370008688	-46.983234120272662	0	0
-56.274391055784179	-47.248252286877594	0	0
-60.63921341467514	-47.803527487644487	0	0
-56.00937330783897	-49.331462064509985	0	0
-58.100806854590402	-51.512839491392995	0	0
-59.588814018039109	-51.702137493578213	0	0
-60.403238406857959	-49.658437389204032	0	0
2.1789197746282882	-55.457211511360114	0	0
3.1500113174288558	-80.173141722774417	0	0
3.1595645392635499	-80.416287454926291	0	0
3.1786709829329673	-80.902578919230109	0	0
3.1691177610982635	-80.659433187078207	0	0
5.280445219594708	-134.39630537437725	0	0
-24.884085274108994	-78.419270261360381	0	0
-34.381018619162987	-106.14808564242792	0	0
-21.840645752090612	-79.320778118883183	0	0
-28.978042521108762	-107.74852007562913	0	0
-22.064147437081623	-77.88501715910914	0	0
-23.914669525377253	-77.336867543830579	0	0
-24.20599884952836	-78.320378859506505	0	0
-24.515065220748561	-78.228829229512101	0	0
-22.046410390012525	-78.960078104779441	0	0
-22.355476761232733	-78.868528474785066	0	0
-14.43542973111269	-80.996407431018284	0	0
-20.231778808412301	-109.72759749985829	0	0
-11.300356868206412	-81.492954191786367	0	0
-14.666127307407605	-110.60911009788633	0	0
-11.709350876316636	-80.098649189953917	0	0
-13.615589373665419	-79.796730672426222	0	0
-11.551441960501204	-81.162197690987242	0	0
-11.869813850673335	-81.11177253734725	0	0
-13.776052348021876	-80.809854019819682	0	0
-14.094424238194199	-80.759428866179604	0	0
-3.7397799831595901	-82.187673613084883	0	0
-5.736367652941099	-111.42963974182869	0	0
-0.56671574525658153	-82.270763224352621	0	0
-0.1032705892575846	-111.57714757972997	0	0
-1.1542040756127767	-80.941771125617464	0	0
-3.0835427128157251	-80.891249615383231	0	0
-0.85882515638117884	-81.975609572289812	0	0
-1.1810551341949271	-81.967171683363574	0	0
-3.1103937713978622	-81.916650173129284	0	0
-3.4326237492115181	-81.908212284203017	0	0
-52.999652577197878	-62.927231584980213	0	0
-72.385033161761953	-84.910997526904964	0	0
-50.532873215589966	-64.924790125425247	0	0
-68.00579387229476	-88.457235581055656	0	0
-50.189919915692982	-63.51278956915943	0	0
-51.689811621304763	-62.298201214433313	0	0
-50.584941033629285	-64.512804047118919	0	0